@<TRIPOS>MOLECULE
*****
 34 37 0 0 0
SMALL
GASTEIGER

@<TRIPOS>ATOM
      1 C         -36.6033  -20.9402  -21.5874 C.ar    1  UNL1        0.0235
      2 C         -36.1938  -21.4169  -20.3994 C.ar    1  UNL1        0.0788
      3 N         -34.8617  -21.3056  -19.9599 N.ar    1  UNL1       -0.2921
      4 C         -34.4970  -21.8262  -18.6681 C.3     1  UNL1        0.1336
      5 C         -33.8257  -20.6761  -20.6923 C.ar    1  UNL1        0.2614
      6 O         -32.6576  -20.5657  -20.2959 O.2     1  UNL1       -0.2670
      7 C         -34.2347  -20.1528  -21.9723 C.ar    1  UNL1        0.0629
      8 C         -35.5522  -20.3293  -22.3134 C.ar    1  UNL1        0.0357
      9 S         -35.8434  -19.6851  -23.7780 S.2     1  UNL1       -0.0795
     10 C         -34.2946  -19.1294  -24.0916 C.ar    1  UNL1        0.1111
     11 C         -33.4917  -19.4450  -23.0056 C.ar    1  UNL1        0.0191
     12 C         -40.6509  -20.5436  -23.1909 C.ar    1  UNL1        0.1724
     13 C         -39.7213  -21.4448  -23.7554 C.ar    1  UNL1        0.0400
     14 C         -38.4575  -21.6747  -23.1709 C.ar    1  UNL1        0.0034
     15 C         -38.0299  -20.9382  -22.0562 C.ar    1  UNL1        0.0051
     16 C         -38.9149  -19.9891  -21.5503 C.ar    1  UNL1        0.0401
     17 C         -40.2153  -19.7946  -22.0750 C.ar    1  UNL1        0.1724
     18 C         -42.6748  -21.9678  -23.4132 C.3     1  UNL1        0.2526
     19 O         -41.9368  -20.7668  -23.6355 O.3     1  UNL1       -0.4684
     20 O         -40.8524  -18.8637  -21.2893 O.3     1  UNL1       -0.4684
     21 C         -41.7715  -19.3912  -20.3823 C.3     1  UNL1        0.2526
     22 C         -34.0904  -18.4553  -25.3763 C.2     1  UNL1        0.3181
     23 N         -34.7580  -18.8586  -26.4177 N.2     1  UNL1       -0.0988
     24 H         -35.3787  -19.6343  -26.1688 H       1  UNL1        0.3633
     25 N         -33.2359  -17.3894  -25.6287 N.pl3   1  UNL1       -0.2222
     26 H         -32.5330  -17.6215  -26.3216 H       1  UNL1        0.2921
     27 C         -33.1318  -16.1333  -24.8897 C.3     1  UNL1        0.1602
     28 C         -34.3243  -15.2153  -25.0483 C.3     1  UNL1        0.0717
     29 C         -34.4398  -14.6774  -26.4435 C.3     1  UNL1        0.1549
     30 S         -32.9785  -13.7603  -26.8895 S.O2    1  UNL1       -0.0097
     31 O         -33.0210  -13.5358  -28.3187 O.2     1  UNL1       -0.1730
     32 O         -32.8431  -12.6580  -25.9564 O.2     1  UNL1       -0.1730
     33 C         -31.6640  -14.9069  -26.5569 C.3     1  UNL1        0.1549
     34 C         -31.7727  -15.4474  -25.1520 C.3     1  UNL1        0.0717
@<TRIPOS>BOND
     1    18    19    1
     2    19    12    1
     3    12    13   ar
     4    13    14   ar
     5    14    15   ar
     6    15     1    1
     7     1     2   ar
     8     2     3   ar
     9     3     4    1
    10     3     5   ar
    11     5     6    2
    12     5     7   ar
    13     7     8   ar
    14     1     8   ar
    15     8     9   ar
    16     9    10   ar
    17    10    22    1
    18    22    23    2
    19    22    25    1
    20    25    27    1
    21    27    28    1
    22    28    29    1
    23    29    30    1
    24    30    31    2
    25    30    32    2
    26    30    33    1
    27    33    34    1
    28    27    34    1
    29    10    11   ar
    30     7    11   ar
    31    15    16   ar
    32    16    17   ar
    33    12    17   ar
    34    17    20    1
    35    20    21    1
    36    23    24    1
    37    25    26    1
