@<TRIPOS>MOLECULE
*****
 39 42 0 0 0
SMALL
GASTEIGER

@<TRIPOS>ATOM
      1 C         -12.8302   -0.6029   -2.0735 C.3     1  UNL1        0.1543
      2 C         -13.7007    0.6599   -1.9942 C.3     1  UNL1        0.0602
      3 C         -15.0942    0.1372   -1.6613 C.3     1  UNL1        0.1324
      4 O         -15.6902   -0.5363   -2.7903 O.3     1  UNL1       -0.3826
      5 C         -14.7461   -0.8960   -0.6534 C.3     1  UNL1        0.1230
      6 N         -13.6923   -1.5509   -1.3631 N.am    1  UNL1       -0.2691
      7 C         -13.2541   -2.8119   -1.2260 C.2     1  UNL1        0.2439
      8 O         -12.3956   -3.1136   -2.0548 O.2     1  UNL1       -0.2731
      9 H         -15.1576   -1.3428   -2.9650 H       1  UNL1        0.2104
     10 N         -10.1800   -0.5808   -2.1648 N.am    1  UNL1       -0.2991
     11 C         -11.3602   -0.4450   -1.4594 C.2     1  UNL1        0.2409
     12 O         -11.2340   -0.2085   -0.2499 O.2     1  UNL1       -0.2733
     13 H          -9.3586   -0.3871   -1.6159 H       1  UNL1        0.1498
     14 C          -9.9099   -0.7158   -3.5677 C.3     1  UNL1        0.1164
     15 C         -12.7646    1.9140   -5.7117 C.ar    1  UNL1        0.0072
     16 C         -11.7410    2.5219   -5.0125 C.ar    1  UNL1        0.0003
     17 C         -10.6365    1.7392   -4.5949 C.ar    1  UNL1       -0.0026
     18 C         -10.6182    0.2805   -4.6285 C.ar    1  UNL1       -0.0026
     19 C         -11.7010   -0.2807   -5.3520 C.ar    1  UNL1       -0.0026
     20 C         -12.7589    0.5208   -5.8476 C.ar    1  UNL1        0.0003
     21 C         -15.8291    2.7579   -4.8829 C.3     1  UNL1        0.0526
     22 C         -15.0456    3.0944   -6.0958 C.ar    1  UNL1        0.0660
     23 C         -13.7416    2.7359   -6.3848 C.ar    1  UNL1        0.0445
     24 S         -13.2919    3.3044   -7.9458 S.2     1  UNL1       -0.0649
     25 C         -14.8495    3.9542   -8.1157 C.ar    1  UNL1        0.1341
     26 N         -15.6689    3.8184   -7.0982 N.ar    1  UNL1       -0.2406
     27 C         -13.8830   -3.7180   -0.0017 C.3     1  UNL1        0.1487
     28 N         -14.7700   -5.1054   -0.3483 N.am    1  UNL1       -0.2962
     29 C         -14.5607   -6.4266   -0.8453 C.2     1  UNL1        0.2523
     30 O         -15.4198   -7.2546   -0.8283 O.2     1  UNL1       -0.2723
     31 H         -15.6874   -5.1571    0.0757 H       1  UNL1        0.1499
     32 C         -13.2211   -6.5912   -1.4148 C.3     1  UNL1        0.2015
     33 F         -13.2396   -5.8462   -2.4803 F       1  UNL1       -0.2307
     34 C         -11.7914   -6.5106   -1.1057 C.3     1  UNL1        0.0448
     35 C         -12.4273   -7.7693   -1.7212 C.3     1  UNL1        0.0448
     36 C         -12.8440   -3.6734    1.1256 C.3     1  UNL1        0.0250
     37 C         -12.7637   -4.8951    2.0206 C.3     1  UNL1        0.0021
     38 C         -11.3992   -3.6189    0.5128 C.3     1  UNL1        0.0021
     39 C         -13.3867   -2.5628    2.0455 C.3     1  UNL1        0.0021
@<TRIPOS>BOND
     1    21    22    1
     2    22    23   ar
     3    23    15    1
     4    15    16   ar
     5    16    17   ar
     6    17    18   ar
     7    18    14    1
     8    14    10    1
     9    10    11   am
    10    11    12    2
    11     1     2    1
    12     2     3    1
    13     3     4    1
    14     3     5    1
    15     5     6    1
    16     1     6    1
    17     6     7   am
    18     7     8    2
    19     7    27    1
    20    27    28    1
    21    28    29   am
    22    29    30    2
    23    29    32    1
    24    32    33    1
    25    32    34    1
    26    34    35    1
    27    32    35    1
    28    27    36    1
    29    36    37    1
    30    36    38    1
    31    36    39    1
    32    18    19   ar
    33    19    20   ar
    34    15    20   ar
    35    23    24   ar
    36    24    25   ar
    37    25    26   ar
    38    22    26   ar
    39    10    13    1
    40     4     9    1
    41    28    31    1
    42     1    11    1
