@<TRIPOS>MOLECULE
*****
 143 150 0 0 0
SMALL
GASTEIGER

@<TRIPOS>ATOM
      1 C           9.9983    5.1169   -3.3600 C.3     1  UNL1        0.0788
      2 O           8.6471    5.2533   -3.8263 O.3     1  UNL1       -0.4947
      3 C           7.5944    4.9153   -3.0013 C.ar    1  UNL1        0.1285
      4 C           6.4332    4.4124   -3.3645 C.ar    1  UNL1       -0.0116
      5 C           5.1971    4.4618   -2.7186 C.ar    1  UNL1       -0.0090
      6 C           3.8830    4.4048   -3.2809 C.ar    1  UNL1        0.0065
      7 C           3.5946    3.1151   -3.6131 C.ar    1  UNL1       -0.0007
      8 C           2.4105    2.8995   -4.2016 C.ar    1  UNL1        0.0653
      9 C           2.1849    1.6227   -4.5100 C.ar    1  UNL1        0.0405
     10 N           2.9153    0.6216   -3.9770 N.ar    1  UNL1       -0.2625
     11 C           3.9739    0.9352   -3.2132 C.ar    1  UNL1        0.0282
     12 C           4.5129    2.1464   -3.2726 C.ar    1  UNL1       -0.0351
     13 C           2.9380    5.3373   -3.4498 C.ar    1  UNL1        0.0159
     14 N           1.8123    5.2057   -4.1331 N.ar    1  UNL1       -0.3171
     15 C           0.9366    6.3155   -4.4009 C.3     1  UNL1        0.0147
     16 C           1.4686    3.9594   -4.5117 C.ar    1  UNL1        0.2603
     17 O           0.4155    3.7042   -5.0606 O.2     1  UNL1       -0.2670
     18 C           5.1357    4.6924   -1.4236 C.ar    1  UNL1       -0.0116
     19 C           6.3167    5.3888   -0.8076 C.ar    1  UNL1        0.1285
     20 O           6.1824    6.5689    0.8141 O.3     1  UNL1       -0.4947
     21 C           7.5249    7.1380    1.8620 C.3     1  UNL1        0.0788
     22 C           7.3945    5.4850   -1.8161 C.ar    1  UNL1        0.0498
     23 C           8.6680    5.9623   -1.5327 C.3     1  UNL1        0.0311
     24 N           8.3331    7.1045   -1.9230 N.3     1  UNL1       -0.2955
     25 C           8.8706    8.0012   -2.9015 C.3     1  UNL1        0.0120
     26 C           7.0145    7.9740   -3.5728 C.3     1  UNL1        0.0118
     27 N           5.4274    8.7325   -2.3562 N.3     1  UNL1       -0.2977
     28 C           5.1902    9.9805   -1.8906 C.3     1  UNL1        0.0224
     29 C           6.2528   10.8232   -1.6333 C.3     1  UNL1        0.0605
     30 O           7.4804   11.0191   -2.2420 O.3     1  UNL1       -0.3762
     31 C           8.1555    9.9396   -2.3568 C.3     1  UNL1        0.0711
     32 C           8.7294    9.5874   -0.3106 C.3     1  UNL1        0.0711
     33 O           7.1300    9.8191    0.6617 O.3     1  UNL1       -0.3742
     34 C           6.9897   10.9216    1.0839 C.3     1  UNL1        0.0818
     35 C           8.5834   10.7324    1.2625 C.3     1  UNL1        0.1128
     36 O          10.0416   10.6782    0.4458 O.3     1  UNL1       -0.4893
     37 C          10.5627    9.3554    0.0137 C.ar    1  UNL1        0.1259
     38 C          11.6628    8.7368   -0.2836 C.ar    1  UNL1       -0.0113
     39 C          12.0577    7.3772   -0.8907 C.ar    1  UNL1       -0.0061
     40 C          13.2673    7.2647   -1.4549 C.ar    1  UNL1        0.0418
     41 C          13.4864    7.0039   -2.7662 C.ar    1  UNL1        0.0531
     42 C          12.5261    7.0167   -3.8874 C.3     1  UNL1       -0.0212
     43 N          14.7846    6.6934   -2.9561 N.ar    1  UNL1       -0.2520
     44 C          15.4193    6.7122   -1.7981 C.ar    1  UNL1        0.0655
     45 S          14.5166    7.0486   -0.3998 S.2     1  UNL1       -0.0752
     46 C          11.5970    6.1846   -1.0996 C.ar    1  UNL1       -0.0529
     47 C          10.5429    6.8345   -1.1051 C.ar    1  UNL1       -0.0530
     48 C           9.8848    8.5336   -0.9666 C.ar    1  UNL1        0.0113
     49 C           7.5004    8.7646   -0.9530 C.3     1  UNL1        0.0403
     50 N           6.8134    7.8631   -1.9096 N.am    1  UNL1       -0.3095
     51 C           5.6230    6.8629   -2.4088 C.2     1  UNL1        0.2339
     52 C           4.9586    7.0462   -3.6253 C.3     1  UNL1        0.1047
     53 C           5.5977    7.1904   -4.9095 C.3     1  UNL1        0.0018
     54 C           4.4920    7.7893   -5.5662 C.3     1  UNL1        0.0731
     55 O           3.7690    6.6875   -6.0151 O.3     1  UNL1       -0.3902
     56 C           3.7327    8.6452   -4.5493 C.3     1  UNL1        0.0416
     57 N           3.7981    7.9207   -3.3638 N.am    1  UNL1       -0.2858
     58 C           3.0213    8.1308   -2.1870 C.2     1  UNL1        0.2371
     59 C           2.9509    7.2746   -0.8397 C.3     1  UNL1        0.1045
     60 C           2.1878    7.6539    0.3351 C.3     1  UNL1       -0.0108
     61 C           2.8440    8.7240    1.2879 C.3     1  UNL1       -0.0579
     62 C           0.9964    8.1591   -0.3104 C.3     1  UNL1       -0.0579
     63 C           1.9603    6.3769    1.1237 C.3     1  UNL1       -0.0579
     64 N           3.9901    7.2859    0.0554 N.am    1  UNL1       -0.3009
     65 C           4.8446    5.7062    0.5540 C.2     1  UNL1        0.2508
     66 C           6.8139    5.1269    1.1312 C.3     1  UNL1        0.1868
     67 F           6.4941    5.8888    2.5674 F       1  UNL1       -0.2320
     68 C           8.2107    4.9273    0.3561 C.3     1  UNL1       -0.0068
     69 C           8.3082    6.2668    0.3301 C.3     1  UNL1       -0.0068
     70 O           4.6598    4.5320    0.5990 O.2     1  UNL1       -0.2723
     71 O           2.2047    9.0340   -2.3166 O.2     1  UNL1       -0.2735
     72 O           4.6976    6.6042   -1.6994 O.2     1  UNL1       -0.2738
     73 C           5.7057    7.9562   -0.5826 C.3     1  UNL1        0.0118
     74 C           7.1703    7.5487   -0.0408 C.3     1  UNL1        0.0120
     75 H          10.7581    5.4034   -4.0103 H       1  UNL1        0.0660
     76 H          10.1577    4.2978   -2.6581 H       1  UNL1        0.0660
     77 H          10.4422    6.0247   -2.9295 H       1  UNL1        0.0660
     78 H           6.4856    3.8503   -4.2198 H       1  UNL1        0.0660
     79 H           1.3590    1.3878   -5.1534 H       1  UNL1        0.0837
     80 H           4.3622    0.1999   -2.5304 H       1  UNL1        0.0830
     81 H           5.5535    2.3419   -3.0215 H       1  UNL1        0.0639
     82 H           3.0479    6.3281   -3.2168 H       1  UNL1        0.0816
     83 H           0.7727    6.3710   -5.4765 H       1  UNL1        0.0457
     84 H          -0.0037    6.1325   -3.8907 H       1  UNL1        0.0457
     85 H           1.3506    7.2565   -4.0562 H       1  UNL1        0.0457
     86 H           4.0808    4.9748   -1.0904 H       1  UNL1        0.0660
     87 H           8.4347    6.5955    1.9222 H       1  UNL1        0.0660
     88 H           8.4181    7.6156    0.7989 H       1  UNL1        0.0660
     89 H           7.0110    7.9910    2.3067 H       1  UNL1        0.0660
     90 H           9.5908    6.0093   -0.2547 H       1  UNL1        0.0478
     91 H           9.2548    6.3320   -2.2334 H       1  UNL1        0.0478
     92 H           9.4669    9.0761   -2.2718 H       1  UNL1        0.0439
     93 H           9.7565    7.8959   -3.4662 H       1  UNL1        0.0439
     94 H           7.1980    6.8656   -3.4238 H       1  UNL1        0.0439
     95 H           6.8646    8.8261   -4.0345 H       1  UNL1        0.0439
     96 H           5.1110   10.1318   -2.8609 H       1  UNL1        0.0449
     97 H           4.5142    9.8319   -1.0529 H       1  UNL1        0.0449
     98 H           6.2641   11.6918   -1.1330 H       1  UNL1        0.0572
     99 H           5.9512   10.1580   -0.6513 H       1  UNL1        0.0572
    100 H           7.6941    9.1435   -2.7306 H       1  UNL1        0.0583
    101 H           8.8155    9.7972   -3.3090 H       1  UNL1        0.0583
    102 H           9.0250    7.8031   -0.1847 H       1  UNL1        0.0583
    103 H           9.1712   10.2593   -0.9156 H       1  UNL1        0.0583
    104 H           7.1439   11.1112    0.0608 H       1  UNL1        0.0594
    105 H           6.0289   10.1140    1.2607 H       1  UNL1        0.0594
    106 H           8.3164   11.7055    1.0596 H       1  UNL1        0.0720
    107 H           8.7099    9.9932    1.9979 H       1  UNL1        0.0720
    108 H          12.3340    9.3915    0.0921 H       1  UNL1        0.0660
    109 H          12.8098    7.7685   -4.6059 H       1  UNL1        0.0293
    110 H          12.4998    6.0382   -4.3699 H       1  UNL1        0.0293
    111 H          11.5185    7.2809   -3.5801 H       1  UNL1        0.0293
    112 H          16.4721    6.5211   -1.7374 H       1  UNL1        0.0907
    113 H          11.4963    5.1869   -1.4304 H       1  UNL1        0.0624
    114 H          10.0660    5.3593   -1.2954 H       1  UNL1        0.0622
    115 H           6.5522    8.6048    0.5172 H       1  UNL1        0.0513
    116 H           7.2714    9.7802   -0.8723 H       1  UNL1        0.0513
    117 H           6.4926    8.6974   -2.2972 H       1  UNL1        0.1491
    118 H           4.7855    6.0628   -3.7082 H       1  UNL1        0.0597
    119 H           6.2282    6.3379   -5.1144 H       1  UNL1        0.0313
    120 H           6.3003    7.9536   -5.1321 H       1  UNL1        0.0313
    121 H           4.9350    8.3421   -6.3687 H       1  UNL1        0.0610
    122 H           3.4411    6.2018   -5.2414 H       1  UNL1        0.2098
    123 H           4.1338    9.6415   -4.4225 H       1  UNL1        0.0490
    124 H           2.7074    8.6592   -4.7930 H       1  UNL1        0.0490
    125 H           3.0041    6.2515   -1.0289 H       1  UNL1        0.0600
    126 H           3.1360    9.6071    0.7068 H       1  UNL1        0.0236
    127 H           2.1412    8.9642    2.0434 H       1  UNL1        0.0236
    128 H           3.7672    8.3400    1.7898 H       1  UNL1        0.0236
    129 H           0.6544    7.4189   -1.0373 H       1  UNL1        0.0236
    130 H           0.2891    8.4115    0.4242 H       1  UNL1        0.0236
    131 H           1.2119    9.1040   -0.7808 H       1  UNL1        0.0236
    132 H           1.5861    5.6067    0.4504 H       1  UNL1        0.0236
    133 H           2.8687    5.9930    1.6074 H       1  UNL1        0.0236
    134 H           1.2404    6.6123    1.8812 H       1  UNL1        0.0236
    135 H           4.3280    8.5856    0.0003 H       1  UNL1        0.1496
    136 H           9.2328    4.7012    0.1475 H       1  UNL1        0.0302
    137 H           8.1904    4.5150   -0.6199 H       1  UNL1        0.0302
    138 H           8.1689    7.4477   -0.7284 H       1  UNL1        0.0302
    139 H           9.5030    7.1912    0.9534 H       1  UNL1        0.0302
    140 H           6.2214    7.0327   -0.6905 H       1  UNL1        0.0439
    141 H           5.3471    7.9333    0.4246 H       1  UNL1        0.0439
    142 H           7.8241    8.5002    1.2384 H       1  UNL1        0.0439
    143 H           7.9920    8.7032    0.7921 H       1  UNL1        0.0439
@<TRIPOS>BOND
     1     1     2    1
     2     2     3    1
     3     3     4   ar
     4     4     5   ar
     5     5     6    1
     6     6     7   ar
     7     7     8   ar
     8     8     9   ar
     9     9    10   ar
    10    10    11   ar
    11    11    12   ar
    12     7    12   ar
    13     6    13   ar
    14    13    14   ar
    15    14    15    1
    16    14    16   ar
    17     8    16   ar
    18    16    17    2
    19     5    18   ar
    20    18    19   ar
    21    19    20    1
    22    20    21    1
    23    19    22   ar
    24     3    22   ar
    25    22    23    1
    26    23    24    1
    27    24    25    1
    28    25    26    1
    29    26    27    1
    30    27    28    1
    31    28    29    1
    32    29    30    1
    33    30    31    1
    34    31    32    1
    35    32    33    1
    36    33    34    1
    37    34    35    1
    38    35    36    1
    39    36    37    1
    40    37    38   ar
    41    38    39   ar
    42    39    40    1
    43    40    41   ar
    44    41    42    1
    45    41    43   ar
    46    43    44   ar
    47    44    45   ar
    48    40    45   ar
    49    39    46   ar
    50    46    47   ar
    51    47    48   ar
    52    37    48   ar
    53    48    49    1
    54    49    50    1
    55    50    51   am
    56    52    53    1
    57    53    54    1
    58    54    55    1
    59    54    56    1
    60    56    57    1
    61    52    57    1
    62    57    58   am
    63    60    61    1
    64    60    62    1
    65    60    63    1
    66    59    64    1
    67    64    65   am
    68    65    66    1
    69    66    67    1
    70    66    68    1
    71    68    69    1
    72    66    69    1
    73    65    70    2
    74    58    71    2
    75    51    72    2
    76    27    73    1
    77    73    74    1
    78    24    74    1
    79     1    75    1
    80     1    76    1
    81     1    77    1
    82     4    78    1
    83     9    79    1
    84    11    80    1
    85    12    81    1
    86    13    82    1
    87    15    83    1
    88    15    84    1
    89    15    85    1
    90    18    86    1
    91    21    87    1
    92    21    88    1
    93    21    89    1
    94    23    90    1
    95    23    91    1
    96    25    92    1
    97    25    93    1
    98    26    94    1
    99    26    95    1
   100    28    96    1
   101    28    97    1
   102    29    98    1
   103    29    99    1
   104    31   100    1
   105    31   101    1
   106    32   102    1
   107    32   103    1
   108    34   104    1
   109    34   105    1
   110    35   106    1
   111    35   107    1
   112    38   108    1
   113    42   109    1
   114    42   110    1
   115    42   111    1
   116    44   112    1
   117    46   113    1
   118    47   114    1
   119    49   115    1
   120    49   116    1
   121    50   117    1
   122    53   119    1
   123    53   120    1
   124    54   121    1
   125    55   122    1
   126    56   123    1
   127    56   124    1
   128    59   125    1
   129    61   126    1
   130    61   127    1
   131    61   128    1
   132    62   129    1
   133    62   130    1
   134    62   131    1
   135    63   132    1
   136    63   133    1
   137    63   134    1
   138    64   135    1
   139    68   136    1
   140    68   137    1
   141    69   138    1
   142    69   139    1
   143    73   140    1
   144    73   141    1
   145    74   142    1
   146    74   143    1
   147    52   118    1
   148    52    51    1
   149    59    60    1
   150    59    58    1
